Version 4
SHEET 1 880 680
WIRE 112 0 -64 0
WIRE 256 0 112 0
WIRE 400 0 256 0
WIRE 112 80 112 0
WIRE 256 112 256 80
WIRE 400 112 400 80
WIRE 400 112 256 112
WIRE -64 128 -64 80
WIRE 256 128 256 112
WIRE -64 240 -64 208
WIRE 112 240 112 160
WIRE 112 240 -64 240
WIRE 256 240 256 208
WIRE 256 240 112 240
WIRE 112 272 112 240
FLAG 112 272 0
SYMBOL voltage -64 112 R0
WINDOW 123 0 0 Left 2
WINDOW 39 0 0 Left 2
SYMATTR InstName V1
SYMATTR Value 5
SYMBOL res -80 -16 R0
SYMATTR InstName R1
SYMATTR Value 10
SYMBOL res 240 -16 R0
SYMATTR InstName R2
SYMATTR Value 5
SYMBOL res 96 64 R0
SYMATTR InstName R3
SYMATTR Value 2
SYMBOL voltage 256 112 R0
WINDOW 123 0 0 Left 2
WINDOW 39 0 0 Left 2
SYMATTR InstName V2
SYMATTR Value 15
SYMBOL current 400 80 R180
WINDOW 0 24 80 Left 2
WINDOW 3 24 0 Left 2
WINDOW 123 0 0 Left 2
WINDOW 39 0 0 Left 2
SYMATTR InstName I1
SYMATTR Value 2
TEXT -98 296 Left 2 !.op
