* Example of PULSE source
I1 0 1 pulse(-5 5 0 10u 10u 2.5m 5m)
R1 1 0 2
L1 1 0 1m
.tran 10u 15m
.plot i(I1) i(L1)
.end
