V1 1 0 10
R1 1 2 10
L1 2 3 1e-3
C1 3 0 1e-6
.tran 1e-6 1e-3
.plot v(C1) v(L1) i(L1) v(2) v(1,2)