Version 4
SHEET 1 880 680
WIRE 208 96 112 96
WIRE 336 96 288 96
WIRE 464 96 416 96
WIRE 112 128 112 96
WIRE 464 128 464 96
WIRE 112 240 112 208
WIRE 464 240 464 192
WIRE 464 240 112 240
WIRE 112 272 112 240
FLAG 112 272 0
SYMBOL voltage 112 112 R0
WINDOW 123 0 0 Left 2
WINDOW 39 0 0 Left 2
SYMATTR InstName V1
SYMATTR Value 10
SYMBOL res 304 80 R90
WINDOW 0 0 56 VBottom 2
WINDOW 3 32 56 VTop 2
SYMATTR InstName R1
SYMATTR Value 10
SYMBOL ind 432 80 R90
WINDOW 0 5 56 VBottom 2
WINDOW 3 32 56 VTop 2
SYMATTR InstName L1
SYMATTR Value 1m
SYMBOL cap 448 128 R0
SYMATTR InstName C1
SYMATTR Value 1µ ic=-10
TEXT 72 296 Left 2 !.tran 0 1.05e-3 0 1e-6 uic
